172
Co
 H    0.000000    0.000000    0.000000
 H    0.000000    0.000000    4.085000
 H    0.000000    0.000000    8.170000
 H    0.000000    0.000000   12.255000
 H    0.000000    4.085000    0.000000
 H    0.000000    4.085000    4.085000
 H    0.000000    4.085000    8.170000
 H    0.000000    4.085000   12.255000
 H    0.000000    8.170000    0.000000
 H    0.000000    8.170000    4.085000
 H    0.000000    8.170000    8.170000
 H    0.000000    8.170000   12.255000
 H    0.000000   12.255000    0.000000
 H    0.000000   12.255000    4.085000
 H    0.000000   12.255000    8.170000
 H    0.000000   12.255000   12.255000
 H    4.085000    0.000000    0.000000
 H    4.085000    0.000000    4.085000
 H    4.085000    0.000000    8.170000
 H    4.085000    0.000000   12.255000
 H    4.085000    4.085000    0.000000
 H    4.085000    4.085000    4.085000
 H    4.085000    4.085000    8.170000
 H    4.085000    4.085000   12.255000
 H    4.085000    8.170000    0.000000
 H    4.085000    8.170000    4.085000
 H    4.085000    8.170000    8.170000
 H    4.085000    8.170000   12.255000
 H    4.085000   12.255000    0.000000
 H    4.085000   12.255000    4.085000
 H    4.085000   12.255000    8.170000
 H    4.085000   12.255000   12.255000
 H    8.170000    0.000000    0.000000
 H    8.170000    0.000000    4.085000
 H    8.170000    0.000000    8.170000
 H    8.170000    0.000000   12.255000
 H    8.170000    4.085000    0.000000
 H    8.170000    4.085000    4.085000
 H    8.170000    4.085000    8.170000
 H    8.170000    4.085000   12.255000
 H    8.170000    8.170000    0.000000
 H    8.170000    8.170000    4.085000
 H    8.170000    8.170000    8.170000
 H    8.170000    8.170000   12.255000
 H    8.170000   12.255000    0.000000
 H    8.170000   12.255000    4.085000
 H    8.170000   12.255000    8.170000
 H    8.170000   12.255000   12.255000
 H   12.255000    0.000000    0.000000
 H   12.255000    0.000000    4.085000
 H   12.255000    0.000000    8.170000
 H   12.255000    0.000000   12.255000
 H   12.255000    4.085000    0.000000
 H   12.255000    4.085000    4.085000
 H   12.255000    4.085000    8.170000
 H   12.255000    4.085000   12.255000
 H   12.255000    8.170000    0.000000
 H   12.255000    8.170000    4.085000
 H   12.255000    8.170000    8.170000
 H   12.255000    8.170000   12.255000
 H   12.255000   12.255000    0.000000
 H   12.255000   12.255000    4.085000
 H   12.255000   12.255000    8.170000
 H   12.255000   12.255000   12.255000
 H    0.000000    2.042500    2.042500
 H    0.000000    2.042500    6.127500
 H    0.000000    2.042500   10.212500
 H    0.000000    6.127500    2.042500
 H    0.000000    6.127500    6.127500
 H    0.000000    6.127500   10.212500
 H    0.000000   10.212500    2.042500
 H    0.000000   10.212500    6.127500
 H    0.000000   10.212500   10.212500
 H    4.085000    2.042500    2.042500
 H    4.085000    2.042500    6.127500
 H    4.085000    2.042500   10.212500
 H    4.085000    6.127500    2.042500
 H    4.085000    6.127500    6.127500
 H    4.085000    6.127500   10.212500
 H    4.085000   10.212500    2.042500
 H    4.085000   10.212500    6.127500
 H    4.085000   10.212500   10.212500
 H    8.170000    2.042500    2.042500
 H    8.170000    2.042500    6.127500
 H    8.170000    2.042500   10.212500
 H    8.170000    6.127500    2.042500
 H    8.170000    6.127500    6.127500
 H    8.170000    6.127500   10.212500
 H    8.170000   10.212500    2.042500
 H    8.170000   10.212500    6.127500
 H    8.170000   10.212500   10.212500
 H   12.255000    2.042500    2.042500
 H   12.255000    2.042500    6.127500
 H   12.255000    2.042500   10.212500
 H   12.255000    6.127500    2.042500
 H   12.255000    6.127500    6.127500
 H   12.255000    6.127500   10.212500
 H   12.255000   10.212500    2.042500
 H   12.255000   10.212500    6.127500
 H   12.255000   10.212500   10.212500
 H    2.042500    0.000000    2.042500
 H    2.042500    0.000000    6.127500
 H    2.042500    0.000000   10.212500
 H    2.042500    4.085000    2.042500
 H    2.042500    4.085000    6.127500
 H    2.042500    4.085000   10.212500
 H    2.042500    8.170000    2.042500
 H    2.042500    8.170000    6.127500
 H    2.042500    8.170000   10.212500
 H    2.042500   12.255000    2.042500
 H    2.042500   12.255000    6.127500
 H    2.042500   12.255000   10.212500
 H    6.127500    0.000000    2.042500
 H    6.127500    0.000000    6.127500
 H    6.127500    0.000000   10.212500
 H    6.127500    4.085000    2.042500
 H    6.127500    4.085000    6.127500
 H    6.127500    4.085000   10.212500
 H    6.127500    8.170000    2.042500
 H    6.127500    8.170000    6.127500
 H    6.127500    8.170000   10.212500
 H    6.127500   12.255000    2.042500
 H    6.127500   12.255000    6.127500
 H    6.127500   12.255000   10.212500
 H   10.212500    0.000000    2.042500
 H   10.212500    0.000000    6.127500
 H   10.212500    0.000000   10.212500
 H   10.212500    4.085000    2.042500
 H   10.212500    4.085000    6.127500
 H   10.212500    4.085000   10.212500
 H   10.212500    8.170000    2.042500
 H   10.212500    8.170000    6.127500
 H   10.212500    8.170000   10.212500
 H   10.212500   12.255000    2.042500
 H   10.212500   12.255000    6.127500
 H   10.212500   12.255000   10.212500
 H    2.042500    2.042500    0.000000
 H    2.042500    2.042500    4.085000
 H    2.042500    2.042500    8.170000
 H    2.042500    2.042500   12.255000
 H    2.042500    6.127500    0.000000
 H    2.042500    6.127500    4.085000
 H    2.042500    6.127500    8.170000
 H    2.042500    6.127500   12.255000
 H    2.042500   10.212500    0.000000
 H    2.042500   10.212500    4.085000
 H    2.042500   10.212500    8.170000
 H    2.042500   10.212500   12.255000
 H    6.127500    2.042500    0.000000
 H    6.127500    2.042500    4.085000
 H    6.127500    2.042500    8.170000
 H    6.127500    2.042500   12.255000
 H    6.127500    6.127500    0.000000
 H    6.127500    6.127500    4.085000
 H    6.127500    6.127500    8.170000
 H    6.127500    6.127500   12.255000
 H    6.127500   10.212500    0.000000
 H    6.127500   10.212500    4.085000
 H    6.127500   10.212500    8.170000
 H    6.127500   10.212500   12.255000
 H   10.212500    2.042500    0.000000
 H   10.212500    2.042500    4.085000
 H   10.212500    2.042500    8.170000
 H   10.212500    2.042500   12.255000
 H   10.212500    6.127500    0.000000
 H   10.212500    6.127500    4.085000
 H   10.212500    6.127500    8.170000
 H   10.212500    6.127500   12.255000
 H   10.212500   10.212500    0.000000
 H   10.212500   10.212500    4.085000
 H   10.212500   10.212500    8.170000
 H   10.212500   10.212500   12.255000
